!-Generator IDFEditor 1.53
!-Option SortedOrder

!-NOTE: All comments with '!-' are ignored by the IDFEditor and are generated automatically.
!-      Use '!' comments if they need to be retained when using the IDFEditor.


!-   ===========  ALL OBJECTS IN CLASS: VERSION ===========

Version,
    23.2;                    !- Version Identifier


!-   ===========  ALL OBJECTS IN CLASS: SIMULATIONCONTROL ===========

SimulationControl,
    Yes,                     !- Do Zone Sizing Calculation
    Yes,                     !- Do System Sizing Calculation
    Yes,                     !- Do Plant Sizing Calculation
    No,                      !- Run Simulation for Sizing Periods
    Yes,                     !- Run Simulation for Weather File Run Periods
    No,                      !- Do HVAC Sizing Simulation for Sizing Periods
    1;                       !- Maximum Number of HVAC Sizing Simulation Passes


!-   ===========  ALL OBJECTS IN CLASS: BUILDING ===========

Building,
    Building,                !- Name
    30,                      !- North Axis {deg}
    City,                    !- Terrain
    0.04,                    !- Loads Convergence Tolerance Value {W}
    0.4,                     !- Temperature Convergence Tolerance Value {deltaC}
    FullExterior,            !- Solar Distribution
    25,                      !- Maximum Number of Warmup Days
    6;                       !- Minimum Number of Warmup Days


!-   ===========  ALL OBJECTS IN CLASS: SURFACECONVECTIONALGORITHM:INSIDE ===========

SurfaceConvectionAlgorithm:Inside,
    TARP;                    !- Algorithm


!-   ===========  ALL OBJECTS IN CLASS: SURFACECONVECTIONALGORITHM:OUTSIDE ===========

SurfaceConvectionAlgorithm:Outside,
    DOE-2;                   !- Algorithm


!-   ===========  ALL OBJECTS IN CLASS: HEATBALANCEALGORITHM ===========

HeatBalanceAlgorithm,
    ConductionTransferFunction,  !- Algorithm
    200,                     !- Surface Temperature Upper Limit {C}
    0.1,                     !- Minimum Surface Convection Heat Transfer Coefficient Value {W/m2-K}
    1000;                    !- Maximum Surface Convection Heat Transfer Coefficient Value {W/m2-K}


!-   ===========  ALL OBJECTS IN CLASS: TIMESTEP ===========

Timestep,
    4;                       !- Number of Timesteps per Hour


!-   ===========  ALL OBJECTS IN CLASS: CONVERGENCELIMITS ===========

ConvergenceLimits,
    1,                       !- Minimum System Timestep {minutes}
    20,                      !- Maximum HVAC Iterations
    4,                       !- Minimum Plant Iterations
    10;                      !- Maximum Plant Iterations


!-   ===========  ALL OBJECTS IN CLASS: SITE:LOCATION ===========

Site:Location,
    Beijing_Beijing_CHN Design_Conditions,  !- Name
    39.80,                   !- Latitude {deg}
    116.47,                  !- Longitude {deg}
    8.00,                    !- Time Zone {hr}
    31.30;                   !- Elevation {m}


!-   ===========  ALL OBJECTS IN CLASS: SIZINGPERIOD:DESIGNDAY ===========

SizingPeriod:DesignDay,
    Beijing Ann Htg 99.6% Condns DB,  !- Name
    1,                       !- Month
    21,                      !- Day of Month
    WinterDesignDay,         !- Day Type
    -10.8,                   !- Maximum Dry-Bulb Temperature {C}
    0.0,                     !- Daily Dry-Bulb Temperature Range {deltaC}
    DefaultMultipliers,      !- Dry-Bulb Temperature Range Modifier Type
    ,                        !- Dry-Bulb Temperature Range Modifier Day Schedule Name
    Wetbulb,                 !- Humidity Condition Type
    -10.8,                   !- Wetbulb or DewPoint at Maximum Dry-Bulb {C}
    ,                        !- Humidity Condition Day Schedule Name
    ,                        !- Humidity Ratio at Maximum Dry-Bulb {kgWater/kgDryAir}
    ,                        !- Enthalpy at Maximum Dry-Bulb {J/kg}
    ,                        !- Daily Wet-Bulb Temperature Range {deltaC}
    100950.,                 !- Barometric Pressure {Pa}
    2.2,                     !- Wind Speed {m/s}
    340,                     !- Wind Direction {deg}
    No,                      !- Rain Indicator
    No,                      !- Snow Indicator
    No,                      !- Daylight Saving Time Indicator
    ASHRAEClearSky,          !- Solar Model Indicator
    ,                        !- Beam Solar Day Schedule Name
    ,                        !- Diffuse Solar Day Schedule Name
    ,                        !- ASHRAE Clear Sky Optical Depth for Beam Irradiance (taub) {dimensionless}
    ,                        !- ASHRAE Clear Sky Optical Depth for Diffuse Irradiance (taud) {dimensionless}
    0.00;                    !- Sky Clearness

SizingPeriod:DesignDay,
    Beijing Ann Clg .4% Condns DB=>MWB,  !- Name
    7,                       !- Month
    21,                      !- Day of Month
    SummerDesignDay,         !- Day Type
    34.9,                    !- Maximum Dry-Bulb Temperature {C}
    8.9,                     !- Daily Dry-Bulb Temperature Range {deltaC}
    DefaultMultipliers,      !- Dry-Bulb Temperature Range Modifier Type
    ,                        !- Dry-Bulb Temperature Range Modifier Day Schedule Name
    Wetbulb,                 !- Humidity Condition Type
    22.2,                    !- Wetbulb or DewPoint at Maximum Dry-Bulb {C}
    ,                        !- Humidity Condition Day Schedule Name
    ,                        !- Humidity Ratio at Maximum Dry-Bulb {kgWater/kgDryAir}
    ,                        !- Enthalpy at Maximum Dry-Bulb {J/kg}
    ,                        !- Daily Wet-Bulb Temperature Range {deltaC}
    100950.,                 !- Barometric Pressure {Pa}
    3.4,                     !- Wind Speed {m/s}
    180,                     !- Wind Direction {deg}
    No,                      !- Rain Indicator
    No,                      !- Snow Indicator
    No,                      !- Daylight Saving Time Indicator
    ASHRAETau,               !- Solar Model Indicator
    ,                        !- Beam Solar Day Schedule Name
    ,                        !- Diffuse Solar Day Schedule Name
    0.747,                   !- ASHRAE Clear Sky Optical Depth for Beam Irradiance (taub) {dimensionless}
    1.448;                   !- ASHRAE Clear Sky Optical Depth for Diffuse Irradiance (taud) {dimensionless}


!-   ===========  ALL OBJECTS IN CLASS: RUNPERIOD ===========

RunPeriod,
    Run Period 1,            !- Name
    6,                       !- Begin Month
    1,                       !- Begin Day of Month
    2009,                    !- Begin Year
    9,                       !- End Month
    1,                       !- End Day of Month
    2009,                    !- End Year
    Thursday,                !- Day of Week for Start Day
    No,                      !- Use Weather File Holidays and Special Days
    No,                      !- Use Weather File Daylight Saving Period
    No,                      !- Apply Weekend Holiday Rule
    Yes,                     !- Use Weather File Rain Indicators
    Yes;                     !- Use Weather File Snow Indicators


!-   ===========  ALL OBJECTS IN CLASS: SITE:GROUNDTEMPERATURE:BUILDINGSURFACE ===========

Site:GroundTemperature:BuildingSurface,
    21.5,                    !- January Ground Temperature {C}
    21.4,                    !- February Ground Temperature {C}
    21.5,                    !- March Ground Temperature {C}
    21.5,                    !- April Ground Temperature {C}
    22.0,                    !- May Ground Temperature {C}
    22.9,                    !- June Ground Temperature {C}
    23.0,                    !- July Ground Temperature {C}
    23.1,                    !- August Ground Temperature {C}
    23.1,                    !- September Ground Temperature {C}
    22.2,                    !- October Ground Temperature {C}
    21.7,                    !- November Ground Temperature {C}
    21.6;                    !- December Ground Temperature {C}


!-   ===========  ALL OBJECTS IN CLASS: SCHEDULETYPELIMITS ===========

ScheduleTypeLimits,
    Any Number;              !- Name

ScheduleTypeLimits,
    Fraction,                !- Name
    0.0,                     !- Lower Limit Value
    1.0,                     !- Upper Limit Value
    CONTINUOUS;              !- Numeric Type

ScheduleTypeLimits,
    Temperature,             !- Name
    -60,                     !- Lower Limit Value
    200,                     !- Upper Limit Value
    CONTINUOUS,              !- Numeric Type
    Temperature;             !- Unit Type

ScheduleTypeLimits,
    Control Type,            !- Name
    0,                       !- Lower Limit Value
    4,                       !- Upper Limit Value
    DISCRETE;                !- Numeric Type

ScheduleTypeLimits,
    On/Off,                  !- Name
    0,                       !- Lower Limit Value
    1,                       !- Upper Limit Value
    DISCRETE;                !- Numeric Type

ScheduleTypeLimits,
    FlowRate,                !- Name
    0.0,                     !- Lower Limit Value
    10,                      !- Upper Limit Value
    CONTINUOUS;              !- Numeric Type


!-   ===========  ALL OBJECTS IN CLASS: SCHEDULE:COMPACT ===========

Schedule:Compact,
    Clothing Insulation Schedule2,  !- Name
    Any Number,              !- Schedule Type Limits Name
    Through:1/20,            !- Field 1
    For: AllDays,            !- Field 2
    Until:24:00,             !- Field 3
    .5,                      !- Field 4
    Through:1/24,            !- Field 5
    For:AllDays,             !- Field 6
    Until:24:00,             !- Field 7
    .5,                      !- Field 8
    Through:02/10,           !- Field 9
    For:AllDays,             !- Field 10
    Until:24:00,             !- Field 11
    .5,                      !- Field 12
    Through:2/20,            !- Field 13
    For:AllDays,             !- Field 14
    Until:24:00,             !- Field 15
    .5,                      !- Field 16
    Through:02/28,           !- Field 17
    For:AllDays,             !- Field 18
    Until:24:00,             !- Field 19
    .5,                      !- Field 20
    Through:03/10,           !- Field 21
    For:AllDays,             !- Field 22
    Until:24:00,             !- Field 23
    .5,                      !- Field 24
    Through:03/20,           !- Field 25
    For:AllDays,             !- Field 26
    Until:24:00,             !- Field 27
    .5,                      !- Field 28
    Through:12/31,           !- Field 29
    For:AllDays,             !- Field 30
    Until:24:00,             !- Field 31
    .6;                      !- Field 32

Schedule:Compact,
    Air Velocity Schedule,   !- Name
    Fraction,                !- Schedule Type Limits Name
    Through:12/31,           !- Field 1
    For: AllDays,            !- Field 2
    Until:24:00,             !- Field 3
    .2;                      !- Field 4

Schedule:Compact,
    Work Efficiency,         !- Name
    Fraction,                !- Schedule Type Limits Name
    Through:12/31,           !- Field 1
    For: AllDays,            !- Field 2
    Until:24:00,             !- Field 3
    .1;                      !- Field 4

Schedule:Compact,
    OCCUPY-1,                !- Name
    Fraction,                !- Schedule Type Limits Name
    Through: 12/31,          !- Field 1
    For: WeekDays SummerDesignDay CustomDay1 CustomDay2,  !- Field 2
    Until: 8:00,             !- Field 3
    0.0,                     !- Field 4
    Until: 11:00,            !- Field 5
    1.00,                    !- Field 6
    Until: 12:00,            !- Field 7
    0.80,                    !- Field 8
    Until: 13:00,            !- Field 9
    0.40,                    !- Field 10
    Until: 14:00,            !- Field 11
    0.80,                    !- Field 12
    Until: 18:00,            !- Field 13
    1.00,                    !- Field 14
    Until: 19:00,            !- Field 15
    0.50,                    !- Field 16
    Until: 21:00,            !- Field 17
    .3,                      !- Field 18
    Until: 24:00,            !- Field 19
    0.0,                     !- Field 20
    For: Weekends WinterDesignDay Holiday,  !- Field 21
    Until: 24:00,            !- Field 22
    0.0;                     !- Field 23

Schedule:Compact,
    LIGHTS-1,                !- Name
    Fraction,                !- Schedule Type Limits Name
    Through: 12/31,          !- Field 1
    For: WeekDays SummerDesignDay CustomDay1 CustomDay2,  !- Field 2
    Until: 8:00,             !- Field 3
    0.05,                    !- Field 4
    Until: 9:00,             !- Field 5
    0.9,                     !- Field 6
    Until: 10:00,            !- Field 7
    0.95,                    !- Field 8
    Until: 11:00,            !- Field 9
    1.00,                    !- Field 10
    Until: 12:00,            !- Field 11
    0.95,                    !- Field 12
    Until: 13:00,            !- Field 13
    0.8,                     !- Field 14
    Until: 14:00,            !- Field 15
    0.9,                     !- Field 16
    Until: 18:00,            !- Field 17
    1.00,                    !- Field 18
    Until: 19:00,            !- Field 19
    0.60,                    !- Field 20
    Until: 21:00,            !- Field 21
    0.40,                    !- Field 22
    Until: 24:00,            !- Field 23
    0.05,                    !- Field 24
    For: Weekends WinterDesignDay Holiday,  !- Field 25
    Until: 24:00,            !- Field 26
    0.05;                    !- Field 27

Schedule:Compact,
    EQUIP-1,                 !- Name
    Fraction,                !- Schedule Type Limits Name
    Through: 12/31,          !- Field 1
    For: WeekDays SummerDesignDay CustomDay1 CustomDay2,  !- Field 2
    Until: 8:00,             !- Field 3
    0.02,                    !- Field 4
    Until: 9:00,             !- Field 5
    0.4,                     !- Field 6
    Until: 14:00,            !- Field 7
    0.9,                     !- Field 8
    Until: 15:00,            !- Field 9
    0.8,                     !- Field 10
    Until: 16:00,            !- Field 11
    0.7,                     !- Field 12
    Until: 18:00,            !- Field 13
    0.5,                     !- Field 14
    Until: 21:00,            !- Field 15
    0.3,                     !- Field 16
    Until: 24:00,            !- Field 17
    0.02,                    !- Field 18
    For: Weekends WinterDesignDay Holiday,  !- Field 19
    Until: 24:00,            !- Field 20
    0.02;                    !- Field 21

Schedule:Compact,
    INFIL-SCH,               !- Name
    Fraction,                !- Schedule Type Limits Name
    Through: 12/31,          !- Field 1
    For: WeekDays CustomDay1 CustomDay2,  !- Field 2
    Until: 7:00,             !- Field 3
    1.0,                     !- Field 4
    Until: 21:00,            !- Field 5
    0.0,                     !- Field 6
    Until: 24:00,            !- Field 7
    1.0,                     !- Field 8
    For: Weekends Holiday,   !- Field 9
    Until: 24:00,            !- Field 10
    1.0,                     !- Field 11
    For: SummerDesignDay,    !- Field 12
    Until: 24:00,            !- Field 13
    1.0,                     !- Field 14
    For: WinterDesignDay,    !- Field 15
    Until: 24:00,            !- Field 16
    1.0;                     !- Field 17

Schedule:Compact,
    ActSchd,                 !- Name
    Any Number,              !- Schedule Type Limits Name
    Through: 12/31,          !- Field 1
    For: AllDays,            !- Field 2
    Until: 24:00,            !- Field 3
    117.5;                   !- Field 4

Schedule:Compact,
    ShadeTransSch,           !- Name
    Fraction,                !- Schedule Type Limits Name
    Through: 12/31,          !- Field 1
    For: AllDays,            !- Field 2
    Until: 24:00,            !- Field 3
    0.0;                     !- Field 4

Schedule:Compact,
    Htg-SetP-Sch,            !- Name
    Temperature,             !- Schedule Type Limits Name
    Through: 12/31,          !- Field 1
    For: WeekDays CustomDay1 CustomDay2,  !- Field 2
    Until: 8:00,             !- Field 3
    15,                      !- Field 4
    Until: 21:00,            !- Field 5
     20,                     !- Field 6
    Until: 24:00,            !- Field 7
    15,                      !- Field 8
    For: WeekEnds Holiday,   !- Field 9
    Until: 24:00,            !- Field 10
    15,                      !- Field 11
    For: SummerDesignDay,    !- Field 12
    Until: 24:00,            !- Field 13
    13,                      !- Field 14
    For: WinterDesignDay,    !- Field 15
    Until: 24:00,            !- Field 16
    22;                      !- Field 17

Schedule:Compact,
    Clg-SetP-Sch,            !- Name
    Temperature,             !- Schedule Type Limits Name
    Through: 12/31,          !- Field 1
    For: WeekDays CustomDay1 CustomDay2,  !- Field 2
    Until: 8:00,             !- Field 3
    30,                      !- Field 4
    Until: 21:00,            !- Field 5
     20,                     !- Field 6
    Until: 24:00,            !- Field 7
    30,                      !- Field 8
    For: WeekEnds Holiday,   !- Field 9
    Until: 24:00,            !- Field 10
    30,                      !- Field 11
    For: SummerDesignDay,    !- Field 12
    Until: 24:00,            !- Field 13
    24,                      !- Field 14
    For: WinterDesignDay,    !- Field 15
    Until: 24:00,            !- Field 16
    32.0;                    !- Field 17

Schedule:Compact,
    FanAvailSched,           !- Name
    Fraction,                !- Schedule Type Limits Name
    Through: 12/31,          !- Field 1
    For: WeekDays CustomDay1 CustomDay2,  !- Field 2
    Until: 7:00,             !- Field 3
    1,                       !- Field 4
    Until: 21:00,            !- Field 5
    1.0,                     !- Field 6
    Until: 24:00,            !- Field 7
    1,                       !- Field 8
    For: Weekends Holiday,   !- Field 9
    Until: 24:00,            !- Field 10
    1,                       !- Field 11
    For: SummerDesignDay,    !- Field 12
    Until: 24:00,            !- Field 13
    1.0,                     !- Field 14
    For: WinterDesignDay,    !- Field 15
    Until: 24:00,            !- Field 16
    1.0;                     !- Field 17

Schedule:Compact,
    Min OA Sched,            !- Name
    Fraction,                !- Schedule Type Limits Name
    Through: 12/31,          !- Field 1
    For: WeekDays CustomDay1 CustomDay2,  !- Field 2
    Until: 7:00,             !- Field 3
    1,                       !- Field 4
    Until: 21:00,            !- Field 5
    1.0,                     !- Field 6
    Until: 24:00,            !- Field 7
    1,                       !- Field 8
    For: Weekends Holiday,   !- Field 9
    Until: 24:00,            !- Field 10
    1,                       !- Field 11
    For: SummerDesignDay,    !- Field 12
    Until: 24:00,            !- Field 13
    1.0,                     !- Field 14
    For: WinterDesignDay,    !- Field 15
    Until: 24:00,            !- Field 16
    1.0;                     !- Field 17


!-   ===========  ALL OBJECTS IN CLASS: MATERIAL ===========

Material,
    1/2IN Gypsum,            !- Name
    Smooth,                  !- Roughness
    0.0127,                  !- Thickness {m}
    0.16,                    !- Conductivity {W/m-K}
    784.9,                   !- Density {kg/m3}
    830.000000000001,        !- Specific Heat {J/kg-K}
    0.9,                     !- Thermal Absorptance
    0.4,                     !- Solar Absorptance
    0.4;                     !- Visible Absorptance

Material,
    1IN Stucco,              !- Name
    Smooth,                  !- Roughness
    0.0253,                  !- Thickness {m}
    0.691799999999999,       !- Conductivity {W/m-K}
    1858,                    !- Density {kg/m3}
    836.999999999999,        !- Specific Heat {J/kg-K}
    0.9,                     !- Thermal Absorptance
    0.92,                    !- Solar Absorptance
    0.92;                    !- Visible Absorptance

Material,
    8IN Concrete HW,         !- Name
    MediumRough,             !- Roughness
    0.2033,                  !- Thickness {m}
    1.72959999999999,        !- Conductivity {W/m-K}
    2242.99999999999,        !- Density {kg/m3}
    836.999999999999,        !- Specific Heat {J/kg-K}
    0.9,                     !- Thermal Absorptance
    0.65,                    !- Solar Absorptance
    0.65;                    !- Visible Absorptance

Material,
    F08 Metal surface,       !- Name
    Smooth,                  !- Roughness
    0.0008,                  !- Thickness {m}
    45.2800000000001,        !- Conductivity {W/m-K}
    7823.99999999999,        !- Density {kg/m3}
    500,                     !- Specific Heat {J/kg-K}
    0.9,                     !- Thermal Absorptance
    0.7,                     !- Solar Absorptance
    0.7;                     !- Visible Absorptance

Material,
    F16 Acoustic tile,       !- Name
    MediumSmooth,            !- Roughness
    0.0191,                  !- Thickness {m}
    0.06,                    !- Conductivity {W/m-K}
    368,                     !- Density {kg/m3}
    590.000000000002,        !- Specific Heat {J/kg-K}
    0.9,                     !- Thermal Absorptance
    0.3,                     !- Solar Absorptance
    0.3;                     !- Visible Absorptance

Material,
    G01a 19mm gypsum board,  !- Name
    MediumSmooth,            !- Roughness
    0.019,                   !- Thickness {m}
    0.16,                    !- Conductivity {W/m-K}
    800,                     !- Density {kg/m3}
    1090,                    !- Specific Heat {J/kg-K}
    0.9,                     !- Thermal Absorptance
    0.4,                     !- Solar Absorptance
    0.4;                     !- Visible Absorptance

Material,
    G05 25mm wood,           !- Name
    MediumSmooth,            !- Roughness
    0.0254,                  !- Thickness {m}
    0.15,                    !- Conductivity {W/m-K}
    608,                     !- Density {kg/m3}
    1630,                    !- Specific Heat {J/kg-K}
    0.9,                     !- Thermal Absorptance
    0.5,                     !- Solar Absorptance
    0.5;                     !- Visible Absorptance

Material,
    I01 25mm insulation board,  !- Name
    MediumRough,             !- Roughness
    0.0254,                  !- Thickness {m}
    0.03,                    !- Conductivity {W/m-K}
    43,                      !- Density {kg/m3}
    1210,                    !- Specific Heat {J/kg-K}
    0.9,                     !- Thermal Absorptance
    0.6,                     !- Solar Absorptance
    0.6;                     !- Visible Absorptance

Material,
    M11 100mm lightweight concrete,  !- Name
    MediumRough,             !- Roughness
    0.1016,                  !- Thickness {m}
    0.53,                    !- Conductivity {W/m-K}
    1280,                    !- Density {kg/m3}
    840.000000000002,        !- Specific Heat {J/kg-K}
    0.9,                     !- Thermal Absorptance
    0.5,                     !- Solar Absorptance
    0.5;                     !- Visible Absorptance

Material,
    MAT-CC05 4 HW CONCRETE,  !- Name
    Rough,                   !- Roughness
    0.1016,                  !- Thickness {m}
    1.311,                   !- Conductivity {W/m-K}
    2240,                    !- Density {kg/m3}
    836.800000000001,        !- Specific Heat {J/kg-K}
    0.9,                     !- Thermal Absorptance
    0.85,                    !- Solar Absorptance
    0.85;                    !- Visible Absorptance

Material,
    Metal Decking,           !- Name
    MediumSmooth,            !- Roughness
    0.0015,                  !- Thickness {m}
    45.006,                  !- Conductivity {W/m-K}
    7680,                    !- Density {kg/m3}
    418.4,                   !- Specific Heat {J/kg-K}
    0.9,                     !- Thermal Absorptance
    0.6,                     !- Solar Absorptance
    0.6;                     !- Visible Absorptance

Material,
    Metal Roofing,           !- Name
    MediumSmooth,            !- Roughness
    0.0015,                  !- Thickness {m}
    45.006,                  !- Conductivity {W/m-K}
    7680,                    !- Density {kg/m3}
    418.4,                   !- Specific Heat {J/kg-K}
    0.9,                     !- Thermal Absorptance
    0.6,                     !- Solar Absorptance
    0.6;                     !- Visible Absorptance

Material,
    Roof Insulation [18],    !- Name
    MediumRough,             !- Roughness
    0.1693,                  !- Thickness {m}
    0.049,                   !- Conductivity {W/m-K}
    265,                     !- Density {kg/m3}
    836.800000000001,        !- Specific Heat {J/kg-K}
    0.9,                     !- Thermal Absorptance
    0.7,                     !- Solar Absorptance
    0.7;                     !- Visible Absorptance

Material,
    Roof Insulation [21],    !- Name
    MediumRough,             !- Roughness
    0.2105,                  !- Thickness {m}
    0.049,                   !- Conductivity {W/m-K}
    265,                     !- Density {kg/m3}
    836.800000000001,        !- Specific Heat {J/kg-K}
    0.9,                     !- Thermal Absorptance
    0.7,                     !- Solar Absorptance
    0.7;                     !- Visible Absorptance

Material,
    Roof Insulation [25],    !- Name
    MediumRough,             !- Roughness
    0.263,                   !- Thickness {m}
    0.049,                   !- Conductivity {W/m-K}
    265,                     !- Density {kg/m3}
    836.800000000001,        !- Specific Heat {J/kg-K}
    0.9,                     !- Thermal Absorptance
    0.7,                     !- Solar Absorptance
    0.7;                     !- Visible Absorptance

Material,
    Roof Insulation [26],    !- Name
    MediumRough,             !- Roughness
    0.2941,                  !- Thickness {m}
    0.049,                   !- Conductivity {W/m-K}
    265,                     !- Density {kg/m3}
    836.800000000001,        !- Specific Heat {J/kg-K}
    0.9,                     !- Thermal Absorptance
    0.7,                     !- Solar Absorptance
    0.7;                     !- Visible Absorptance

Material,
    Roof Membrane,           !- Name
    VeryRough,               !- Roughness
    0.0095,                  !- Thickness {m}
    0.16,                    !- Conductivity {W/m-K}
    1121.29,                 !- Density {kg/m3}
    1460,                    !- Specific Heat {J/kg-K}
    0.9,                     !- Thermal Absorptance
    0.7,                     !- Solar Absorptance
    0.7;                     !- Visible Absorptance

Material,
    Wall Insulation [31],    !- Name
    MediumRough,             !- Roughness
    0.0337000000000001,      !- Thickness {m}
    0.0432,                  !- Conductivity {W/m-K}
    91,                      !- Density {kg/m3}
    836.999999999999,        !- Specific Heat {J/kg-K}
    0.9,                     !- Thermal Absorptance
    0.5,                     !- Solar Absorptance
    0.5;                     !- Visible Absorptance

Material,
    Wall Insulation [35],    !- Name
    MediumRough,             !- Roughness
    0.0452,                  !- Thickness {m}
    0.0432,                  !- Conductivity {W/m-K}
    91,                      !- Density {kg/m3}
    836.999999999999,        !- Specific Heat {J/kg-K}
    0.9,                     !- Thermal Absorptance
    0.5,                     !- Solar Absorptance
    0.5;                     !- Visible Absorptance

Material,
    Wall Insulation [36],    !- Name
    MediumRough,             !- Roughness
    0.0565999999999999,      !- Thickness {m}
    0.0432,                  !- Conductivity {W/m-K}
    91,                      !- Density {kg/m3}
    836.999999999999,        !- Specific Heat {J/kg-K}
    0.9,                     !- Thermal Absorptance
    0.5,                     !- Solar Absorptance
    0.5;                     !- Visible Absorptance

Material,
    Wall Insulation [37],    !- Name
    MediumRough,             !- Roughness
    0.0680999999999999,      !- Thickness {m}
    0.0432,                  !- Conductivity {W/m-K}
    91,                      !- Density {kg/m3}
    836.999999999999,        !- Specific Heat {J/kg-K}
    0.9,                     !- Thermal Absorptance
    0.5,                     !- Solar Absorptance
    0.5;                     !- Visible Absorptance

Material,
    Wall Insulation [40],    !- Name
    MediumRough,             !- Roughness
    0.0793999999999999,      !- Thickness {m}
    0.0432,                  !- Conductivity {W/m-K}
    91,                      !- Density {kg/m3}
    836.999999999999,        !- Specific Heat {J/kg-K}
    0.9,                     !- Thermal Absorptance
    0.5,                     !- Solar Absorptance
    0.5;                     !- Visible Absorptance

Material,
    Wall Insulation [42],    !- Name
    MediumRough,             !- Roughness
    0.0913999999999999,      !- Thickness {m}
    0.0432,                  !- Conductivity {W/m-K}
    91,                      !- Density {kg/m3}
    836.999999999999,        !- Specific Heat {J/kg-K}
    0.9,                     !- Thermal Absorptance
    0.5,                     !- Solar Absorptance
    0.5;                     !- Visible Absorptance

Material,
    Wall Insulation [44],    !- Name
    MediumRough,             !- Roughness
    0.1104,                  !- Thickness {m}
    0.0432,                  !- Conductivity {W/m-K}
    91,                      !- Density {kg/m3}
    836.999999999999,        !- Specific Heat {J/kg-K}
    0.9,                     !- Thermal Absorptance
    0.5,                     !- Solar Absorptance